data/RTS_GMLC_Geo.m
% Case saved by PowerWorld Simulator, version 20, build date March 18, 2019
function mpc = RTS_GMLC_Geo
mpc.version = '2';
mpc.baseMVA =  100.00;

%% bus data 
mpc.bus = [
101	2	108.00	22.00	0.00	0.00	1	1.0468000	-9.071981	138.00	11	1.100	0.900
102	2	97.00	20.00	0.00	0.00	1	1.0467000	-9.130926	138.00	12	1.100	0.900
103	2	180.00	37.00	0.00	0.00	1	1.0113173	-8.473112	138.00	11	1.100	0.900
104	2	74.00	15.00	0.00	0.00	1	1.0174649	-11.242260	138.00	11	1.100	0.900
105	1	71.00	14.00	0.00	0.00	1	1.0353896	-11.425989	138.00	11	1.100	0.900
106	1	136.00	28.00	0.00	-100.00	1	1.0324170	-13.655538	138.00	12	1.100	0.900
107	2	125.00	25.00	0.00	0.00	1	1.0500000	-4.494281	138.00	12	1.100	0.900
108	1	171.00	35.00	0.00	0.00	1	1.0167154	-9.844691	138.00	12	1.100	0.900
109	1	175.00	36.00	0.00	0.00	1	1.0266194	-8.957421	138.00	13	1.100	0.900
110	1	195.00	40.00	0.00	0.00	1	1.0499918	-10.701348	138.00	13	1.100	0.900
111	1	0.00	0.00	0.00	0.00	1	1.0270406	-4.580438	230.00	13	1.100	0.900
112	1	0.00	0.00	0.00	0.00	1	1.0196480	-2.894721	230.00	13	1.100	0.900
113	2	265.00	54.00	0.00	0.00	1	1.0346840	-0.500624	230.00	14	1.100	0.900
114	2	194.00	39.00	0.00	0.00	1	1.0441000	-3.044805	230.00	16	1.100	0.900
115	2	317.00	64.00	0.00	0.00	1	1.0427699	5.492727	230.00	16	1.100	0.900
116	2	100.00	20.00	0.00	0.00	1	1.0460911	5.336730	230.00	16	1.100	0.900
117	1	0.00	0.00	0.00	0.00	1	1.0483292	8.654701	230.00	17	1.100	0.900
118	2	333.00	68.00	0.00	0.00	1	1.0500000	9.470548	230.00	17	1.100	0.900
119	2	181.00	37.00	0.00	0.00	1	1.0397530	4.875971	230.00	15	1.100	0.900
120	1	128.00	26.00	0.00	0.00	1	1.0438934	6.350745	230.00	15	1.100	0.900
121	3	0.00	0.00	0.00	0.00	1	1.0500000	10.084186	230.00	17	1.100	0.900
122	2	0.00	0.00	0.00	0.00	1	1.0500000	16.035000	230.00	17	1.100	0.900
123	2	0.00	0.00	0.00	0.00	1	1.0500000	7.880305	230.00	15	1.100	0.900
124	1	0.00	0.00	0.00	0.00	1	1.0131972	0.356600	230.00	16	1.100	0.900
201	2	108.00	22.00	0.00	0.00	2	1.0500000	-13.128786	138.00	21	1.100	0.900
202	2	97.00	20.00	0.00	0.00	2	1.0500000	-13.168746	138.00	22	1.100	0.900
203	1	180.00	37.00	0.00	0.00	2	1.0185231	-9.634152	138.00	21	1.100	0.900
204	1	74.00	15.00	0.00	0.00	2	1.0152637	-14.947440	138.00	21	1.100	0.900
205	1	71.00	14.00	0.00	0.00	2	1.0334590	-15.447847	138.00	21	1.100	0.900
206	1	136.00	28.00	0.00	-100.00	2	1.0275327	-17.673914	138.00	22	1.100	0.900
207	2	125.00	25.00	0.00	0.00	2	0.9698998	-22.911055	138.00	22	1.100	0.900
208	1	171.00	35.00	0.00	0.00	2	0.9637664	-22.214855	138.00	22	1.100	0.900
209	1	175.00	36.00	0.00	0.00	2	1.0200480	-12.364420	138.00	23	1.100	0.900
210	1	195.00	40.00	0.00	0.00	2	1.0427881	-14.682741	138.00	23	1.100	0.900
211	1	0.00	0.00	0.00	0.00	2	1.0283510	-6.469149	230.00	23	1.100	0.900
212	2	0.00	0.00	0.00	0.00	2	1.0177889	-4.685652	230.00	23	1.100	0.900
213	2	265.00	54.00	0.00	0.00	2	1.0500000	-0.912038	230.00	24	1.100	0.900
214	2	194.00	39.00	0.00	0.00	2	1.0500000	-4.645482	230.00	26	1.100	0.900
215	2	317.00	64.00	0.00	0.00	2	1.0436738	4.230983	230.00	26	1.100	0.900
216	2	100.00	20.00	0.00	0.00	2	1.0473001	4.164675	230.00	26	1.100	0.900
217	1	0.00	0.00	0.00	0.00	2	1.0494208	7.575939	230.00	27	1.100	0.900
218	2	333.00	68.00	0.00	0.00	2	1.0500000	8.395277	230.00	27	1.100	0.900
219	1	181.00	37.00	0.00	0.00	2	1.0403603	3.929108	230.00	25	1.100	0.900
220	1	128.00	26.00	0.00	0.00	2	1.0440262	5.598358	230.00	25	1.100	0.900
221	2	0.00	0.00	0.00	0.00	2	1.0500000	9.005068	230.00	27	1.100	0.900
222	2	0.00	0.00	0.00	0.00	2	1.0500000	14.956110	230.00	27	1.100	0.900
223	2	0.00	0.00	0.00	0.00	2	1.0500000	7.234554	230.00	25	1.100	0.900
224	1	0.00	0.00	0.00	0.00	2	1.0165703	-0.897584	230.00	26	1.100	0.900
301	2	108.00	22.00	0.00	0.00	3	1.0266709	-25.980560	138.00	31	1.100	0.900
302	2	97.00	20.00	0.00	0.00	3	1.0275087	-26.068226	138.00	32	1.100	0.900
303	2	180.00	37.00	0.00	0.00	3	0.9692165	-19.523199	138.00	31	1.100	0.900
304	1	74.00	15.00	0.00	0.00	3	0.9742973	-26.131279	138.00	31	1.100	0.900
305	1	71.00	14.00	0.00	0.00	3	0.9952385	-26.947894	138.00	31	1.100	0.900
306	1	136.00	28.00	0.00	-100.00	3	0.9805173	-28.542014	138.00	32	1.100	0.900
307	2	125.00	25.00	0.00	0.00	3	0.9108493	-33.656519	138.00	32	1.100	0.900
308	2	171.00	35.00	0.00	0.00	3	0.9043874	-32.867831	138.00	32	1.100	0.900
309	2	175.00	36.00	0.00	0.00	3	0.9669652	-21.700519	138.00	33	1.100	0.900
310	2	195.00	40.00	0.00	0.00	3	0.9903881	-24.506306	138.00	33	1.100	0.900
311	1	0.00	0.00	0.00	0.00	3	0.9660330	-14.237249	230.00	33	1.100	0.900
312	2	0.00	0.00	0.00	0.00	3	0.9709575	-12.277464	230.00	33	1.100	0.900
313	2	265.00	54.00	0.00	0.00	3	1.0022592	-8.625493	230.00	34	1.100	0.900
314	2	194.00	39.00	0.00	0.00	3	0.9718352	-10.643105	230.00	36	1.100	0.900
315	2	317.00	64.00	0.00	0.00	3	1.0307198	0.924214	230.00	36	1.100	0.900
316	2	100.00	20.00	0.00	0.00	3	1.0284028	0.643410	230.00	36	1.100	0.900
317	2	0.00	0.00	0.00	0.00	3	1.0421834	4.595758	230.00	37	1.100	0.900
318	2	333.00	68.00	0.00	0.00	3	1.0500000	5.653524	230.00	37	1.100	0.900
319	2	181.00	37.00	0.00	0.00	3	1.0294679	0.230445	230.00	35	1.100	0.900
320	2	128.00	26.00	0.00	0.00	3	1.0402011	1.778756	230.00	35	1.100	0.900
321	2	0.00	0.00	0.00	0.00	3	1.0500000	6.332100	230.00	37	1.100	0.900
322	2	0.00	0.00	0.00	0.00	3	1.0500000	12.379387	230.00	37	1.100	0.900
323	2	0.00	0.00	0.00	0.00	3	1.0500001	3.340344	230.00	35	1.100	0.900
324	2	0.00	0.00	0.00	0.00	3	0.9794860	-6.405211	230.00	36	1.100	0.900
325	1	0.00	0.00	0.00	0.00	3	1.0491493	3.901058	230.00	35	1.100	0.900
];

%% generator data 
mpc.gen = [
101	8.00	2.67	10.00	0.00	1.0468	100.00	1	8.00	8.00	0.00	0.00	0.00	0.00	0.00	0.00	0	0	0	0	20.0000
101	8.00	2.67	10.00	0.00	1.0468	100.00	1	8.00	8.00	0.00	0.00	0.00	0.00	0.00	0.00	0	0	0	0	20.0000
101	76.00	2.67	30.00	-25.00	1.0468	100.00	1	76.00	76.00	0.00	0.00	0.00	0.00	0.00	0.00	0	0	0	0	76.0000
101	76.00	2.67	30.00	-25.00	1.0468	100.00	1	76.00	76.00	0.00	0.00	0.00	0.00	0.00	0.00	0	0	0	0	76.0000
101	0.00	0.00	0.00	0.00	1.0468	100.00	1	0.00	0.00	0.00	0.00	0.00	0.00	0.00	0.00	0	0	0	0	25.9000
101	0.00	0.00	0.00	0.00	1.0468	100.00	1	0.00	0.00	0.00	0.00	0.00	0.00	0.00	0.00	0	0	0	0	26.7000
101	0.00	0.00	0.00	0.00	1.0468	100.00	1	0.00	0.00	0.00	0.00	0.00	0.00	0.00	0.00	0	0	0	0	26.2000
101	0.00	0.00	0.00	0.00	1.0468	100.00	1	0.00	0.00	0.00	0.00	0.00	0.00	0.00	0.00	0	0	0	0	25.8000
102	8.00	1.17	10.00	0.00	1.0467	100.00	1	8.00	8.00	0.00	0.00	0.00	0.00	0.00	0.00	0	0	0	0	20.0000
102	8.00	1.17	10.00	0.00	1.0467	100.00	1	8.00	8.00	0.00	0.00	0.00	0.00	0.00	0.00	0	0	0	0	20.0000
102	76.00	1.17	30.00	-25.00	1.0467	100.00	1	76.00	76.00	0.00	0.00	0.00	0.00	0.00	0.00	0	0	0	0	76.0000
102	76.00	1.17	30.00	-25.00	1.0467	100.00	1	76.00	76.00	0.00	0.00	0.00	0.00	0.00	0.00	0	0	0	0	76.0000
102	0.00	0.00	0.00	0.00	1.0467	100.00	1	0.00	0.00	0.00	0.00	0.00	0.00	0.00	0.00	0	0	0	0	25.6000
102	0.00	0.00	0.00	0.00	1.0467	100.00	1	0.00	0.00	0.00	0.00	0.00	0.00	0.00	0.00	0	0	0	0	25.3000
103	0.00	0.00	0.00	0.00	1.0000	100.00	1	0.00	0.00	0.00	0.00	0.00	0.00	0.00	0.00	0	0	0	0	61.5000
104	0.00	0.00	0.00	0.00	1.0000	100.00	1	0.00	0.00	0.00	0.00	0.00	0.00	0.00	0.00	0	0	0	0	26.8000
107	355.00	49.51	150.00	-25.00	1.0500	100.00	1	355.00	355.00	0.00	0.00	0.00	0.00	0.00	0.00	0	0	0	0	355.0000
113	55.00	19.00	19.00	-15.00	1.0347	100.00	1	55.00	55.00	0.00	0.00	0.00	0.00	0.00	0.00	0	0	0	0	55.0000
113	55.00	19.00	19.00	-15.00	1.0347	100.00	1	55.00	55.00	0.00	0.00	0.00	0.00	0.00	0.00	0	0	0	0	55.0000
113	55.00	19.00	19.00	-15.00	1.0347	100.00	1	55.00	55.00	0.00	0.00	0.00	0.00	0.00	0.00	0	0	0	0	55.0000
113	55.00	19.00	19.00	-15.00	1.0347	100.00	1	55.00	55.00	0.00	0.00	0.00	0.00	0.00	0.00	0	0	0	0	55.0000
113	0.00	0.00	0.00	0.00	1.0347	100.00	1	0.00	0.00	0.00	0.00	0.00	0.00	0.00	0.00	0	0	0	0	93.6000
113	0.00	0.00	0.00	0.00	1.0347	100.00	0	0.00	0.00	0.00	0.00	0.00	0.00	0.00	0.00	0	0	0	0	0.0000
114	0.00	103.26	200.00	-50.00	1.0441	100.00	1	0.00	0.00	0.00	0.00	0.00	0.00	0.00	0.00	0	0	0	0	0.0000
115	5.00	6.00	6.00	0.00	1.0428	100.00	1	5.00	5.00	0.00	0.00	0.00	0.00	0.00	0.00	0	0	0	0	12.0000
115	5.00	6.00	6.00	0.00	1.0428	100.00	1	5.00	5.00	0.00	0.00	0.00	0.00	0.00	0.00	0	0	0	0	12.0000
115	155.00	80.00	80.00	-50.00	1.0428	100.00	1	155.00	155.00	0.00	0.00	0.00	0.00	0.00	0.00	0	0	0	0	155.0000
116	155.00	80.00	80.00	-50.00	1.0461	100.00	1	155.00	155.00	0.00	0.00	0.00	0.00	0.00	0.00	0	0	0	0	155.0000
118	355.00	68.49	150.00	-25.00	1.0500	100.00	1	355.00	355.00	0.00	0.00	0.00	0.00	0.00	0.00	0	0	0	0	355.0000
118	0.00	0.00	0.00	0.00	1.0500	100.00	1	0.00	0.00	0.00	0.00	0.00	0.00	0.00	0.00	0	0	0	0	9.3000
118	0.00	0.00	0.00	0.00	1.0500	100.00	1	0.00	0.00	0.00	0.00	0.00	0.00	0.00	0.00	0	0	0	0	9.7000
118	0.00	0.00	0.00	0.00	1.0500	100.00	1	0.00	0.00	0.00	0.00	0.00	0.00	0.00	0.00	0	0	0	0	9.4000
118	0.00	0.00	0.00	0.00	1.0500	100.00	1	0.00	0.00	0.00	0.00	0.00	0.00	0.00	0.00	0	0	0	0	9.1000
118	0.00	0.00	0.00	0.00	1.0500	100.00	1	0.00	0.00	0.00	0.00	0.00	0.00	0.00	0.00	0	0	0	0	9.1000
118	0.00	0.00	0.00	0.00	1.0500	100.00	1	0.00	0.00	0.00	0.00	0.00	0.00	0.00	0.00	0	0	0	0	9.7000
118	0.00	0.00	0.00	0.00	1.0500	100.00	1	0.00	0.00	0.00	0.00	0.00	0.00	0.00	0.00	0	0	0	0	11.8000
118	0.00	0.00	0.00	0.00	1.0500	100.00	1	0.00	0.00	0.00	0.00	0.00	0.00	0.00	0.00	0	0	0	0	11.2000
118	0.00	0.00	0.00	0.00	1.0500	100.00	1	0.00	0.00	0.00	0.00	0.00	0.00	0.00	0.00	0	0	0	0	10.3000
118	0.00	0.00	0.00	0.00	1.0500	100.00	1	0.00	0.00	0.00	0.00	0.00	0.00	0.00	0.00	0	0	0	0	4.5000
119	0.00	0.00	0.00	0.00	1.0000	100.00	1	0.00	0.00	0.00	0.00	0.00	0.00	0.00	0.00	0	0	0	0	66.6000
121	404.95	-21.84	200.00	-50.00	1.0500	100.00	1	404.95	404.95	0.00	0.00	0.00	0.00	0.00	0.00	0	0	0	0	400.0000
122	50.00	-6.79	16.00	-10.00	1.0500	100.00	1	50.00	50.00	0.00	0.00	0.00	0.00	0.00	0.00	0	0	0	0	50.0000
122	50.00	-6.79	16.00	-10.00	1.0500	100.00	1	50.00	50.00	0.00	0.00	0.00	0.00	0.00	0.00	0	0	0	0	50.0000
122	50.00	-6.79	16.00	-10.00	1.0500	100.00	1	50.00	50.00	0.00	0.00	0.00	0.00	0.00	0.00	0	0	0	0	50.0000
122	50.00	-6.79	16.00	-10.00	1.0500	100.00	1	50.00	50.00	0.00	0.00	0.00	0.00	0.00	0.00	0	0	0	0	50.0000
122	50.00	-6.79	16.00	-10.00	1.0500	100.00	1	50.00	50.00	0.00	0.00	0.00	0.00	0.00	0.00	0	0	0	0	50.0000
122	50.00	-6.79	16.00	-10.00	1.0500	100.00	1	50.00	50.00	0.00	0.00	0.00	0.00	0.00	0.00	0	0	0	0	50.0000
122	0.00	0.00	0.00	0.00	1.0500	100.00	1	0.00	0.00	0.00	0.00	0.00	0.00	0.00	0.00	0	0	0	0	713.5000
123	155.00	5.02	80.00	-50.00	1.0500	100.00	1	155.00	155.00	0.00	0.00	0.00	0.00	0.00	0.00	0	0	0	0	155.0000
123	350.00	5.02	150.00	-25.00	1.0500	100.00	1	350.00	350.00	0.00	0.00	0.00	0.00	0.00	0.00	0	0	0	0	350.0000
123	55.00	5.02	19.00	-15.00	1.0500	100.00	1	55.00	55.00	0.00	0.00	0.00	0.00	0.00	0.00	0	0	0	0	55.0000
123	55.00	5.02	19.00	-15.00	1.0500	100.00	1	55.00	55.00	0.00	0.00	0.00	0.00	0.00	0.00	0	0	0	0	55.0000
123	55.00	5.02	19.00	-15.00	1.0500	100.00	1	55.00	55.00	0.00	0.00	0.00	0.00	0.00	0.00	0	0	0	0	55.0000
201	8.00	5.44	10.00	0.00	1.0500	100.00	1	8.00	8.00	0.00	0.00	0.00	0.00	0.00	0.00	0	0	0	0	20.0000
201	8.00	5.44	10.00	0.00	1.0500	100.00	1	8.00	8.00	0.00	0.00	0.00	0.00	0.00	0.00	0	0	0	0	20.0000
201	76.00	5.44	30.00	-25.00	1.0500	100.00	1	76.00	76.00	0.00	0.00	0.00	0.00	0.00	0.00	0	0	0	0	76.0000
201	50.00	5.44	16.00	-10.00	1.0500	100.00	1	50.00	50.00	0.00	0.00	0.00	0.00	0.00	0.00	0	0	0	0	50.0000
202	8.00	3.57	10.00	0.00	1.0500	100.00	1	8.00	8.00	0.00	0.00	0.00	0.00	0.00	0.00	0	0	0	0	20.0000
202	8.00	3.57	10.00	0.00	1.0500	100.00	1	8.00	8.00	0.00	0.00	0.00	0.00	0.00	0.00	0	0	0	0	20.0000
202	76.00	3.57	30.00	-25.00	1.0500	100.00	1	76.00	76.00	0.00	0.00	0.00	0.00	0.00	0.00	0	0	0	0	76.0000
202	76.00	3.57	30.00	-25.00	1.0500	100.00	1	76.00	76.00	0.00	0.00	0.00	0.00	0.00	0.00	0	0	0	0	76.0000
207	55.00	19.00	19.00	-15.00	0.9699	100.00	1	55.00	55.00	0.00	0.00	0.00	0.00	0.00	0.00	0	0	0	0	55.0000
207	55.00	19.00	19.00	-15.00	0.9699	100.00	1	55.00	55.00	0.00	0.00	0.00	0.00	0.00	0.00	0	0	0	0	55.0000
212	0.00	0.00	0.00	0.00	1.0000	100.00	1	0.00	0.00	0.00	0.00	0.00	0.00	0.00	0.00	0	0	0	0	200.0000
213	355.00	116.20	150.00	-25.00	1.0500	100.00	1	355.00	355.00	0.00	0.00	0.00	0.00	0.00	0.00	0	0	0	0	355.0000
213	55.00	19.00	19.00	-15.00	1.0500	100.00	1	55.00	55.00	0.00	0.00	0.00	0.00	0.00	0.00	0	0	0	0	55.0000
213	55.00	19.00	19.00	-15.00	1.0500	100.00	1	55.00	55.00	0.00	0.00	0.00	0.00	0.00	0.00	0	0	0	0	55.0000
213	0.00	0.00	0.00	0.00	1.0500	100.00	1	0.00	0.00	0.00	0.00	0.00	0.00	0.00	0.00	0	0	0	0	13.2000
214	0.00	125.30	200.00	-50.00	1.0500	100.00	1	0.00	0.00	0.00	0.00	0.00	0.00	0.00	0.00	0	0	0	0	0.0000
215	55.00	19.00	19.00	-15.00	1.0437	100.00	1	55.00	55.00	0.00	0.00	0.00	0.00	0.00	0.00	0	0	0	0	55.0000
215	55.00	19.00	19.00	-15.00	1.0437	100.00	1	55.00	55.00	0.00	0.00	0.00	0.00	0.00	0.00	0	0	0	0	55.0000
215	50.00	16.00	16.00	-10.00	1.0437	100.00	1	50.00	50.00	0.00	0.00	0.00	0.00	0.00	0.00	0	0	0	0	50.0000
215	50.00	16.00	16.00	-10.00	1.0437	100.00	1	50.00	50.00	0.00	0.00	0.00	0.00	0.00	0.00	0	0	0	0	50.0000
215	50.00	16.00	16.00	-10.00	1.0437	100.00	1	50.00	50.00	0.00	0.00	0.00	0.00	0.00	0.00	0	0	0	0	50.0000
215	0.00	0.00	0.00	0.00	1.0437	100.00	1	0.00	0.00	0.00	0.00	0.00	0.00	0.00	0.00	0	0	0	0	125.1000
216	155.00	80.00	80.00	-50.00	1.0473	100.00	1	155.00	155.00	0.00	0.00	0.00	0.00	0.00	0.00	0	0	0	0	155.0000
218	355.00	60.32	150.00	-25.00	1.0500	100.00	1	355.00	355.00	0.00	0.00	0.00	0.00	0.00	0.00	0	0	0	0	355.0000
221	296.97	-7.51	150.00	-25.00	1.0500	100.00	1	296.97	296.97	0.00	0.00	0.00	0.00	0.00	0.00	0	0	0	0	355.0000
222	50.00	-6.97	16.00	-10.00	1.0500	100.00	1	50.00	50.00	0.00	0.00	0.00	0.00	0.00	0.00	0	0	0	0	50.0000
222	50.00	-6.97	16.00	-10.00	1.0500	100.00	1	50.00	50.00	0.00	0.00	0.00	0.00	0.00	0.00	0	0	0	0	50.0000
222	50.00	-6.97	16.00	-10.00	1.0500	100.00	1	50.00	50.00	0.00	0.00	0.00	0.00	0.00	0.00	0	0	0	0	50.0000
222	50.00	-6.97	16.00	-10.00	1.0500	100.00	1	50.00	50.00	0.00	0.00	0.00	0.00	0.00	0.00	0	0	0	0	50.0000
222	50.00	-6.97	16.00	-10.00	1.0500	100.00	1	50.00	50.00	0.00	0.00	0.00	0.00	0.00	0.00	0	0	0	0	50.0000
222	50.00	-6.97	16.00	-10.00	1.0500	100.00	1	50.00	50.00	0.00	0.00	0.00	0.00	0.00	0.00	0	0	0	0	50.0000
223	155.00	0.10	80.00	-50.00	1.0500	100.00	1	155.00	155.00	0.00	0.00	0.00	0.00	0.00	0.00	0	0	0	0	155.0000
223	155.00	0.10	80.00	-50.00	1.0500	100.00	1	155.00	155.00	0.00	0.00	0.00	0.00	0.00	0.00	0	0	0	0	155.0000
223	350.00	0.10	150.00	-25.00	1.0500	100.00	1	350.00	350.00	0.00	0.00	0.00	0.00	0.00	0.00	0	0	0	0	350.0000
223	22.00	0.10	19.00	-15.00	1.0500	100.00	1	22.00	22.00	0.00	0.00	0.00	0.00	0.00	0.00	0	0	0	0	55.0000
223	22.00	0.10	19.00	-15.00	1.0500	100.00	1	22.00	22.00	0.00	0.00	0.00	0.00	0.00	0.00	0	0	0	0	55.0000
223	22.00	0.10	19.00	-15.00	1.0500	100.00	1	22.00	22.00	0.00	0.00	0.00	0.00	0.00	0.00	0	0	0	0	55.0000
301	8.00	10.00	10.00	0.00	1.0500	100.00	1	8.00	8.00	0.00	0.00	0.00	0.00	0.00	0.00	0	0	0	0	20.0000
301	8.00	10.00	10.00	0.00	1.0500	100.00	1	8.00	8.00	0.00	0.00	0.00	0.00	0.00	0.00	0	0	0	0	20.0000
301	44.00	19.00	19.00	-15.00	1.0500	100.00	1	44.00	44.00	0.00	0.00	0.00	0.00	0.00	0.00	0	0	0	0	55.0000
301	44.00	19.00	19.00	-15.00	1.0500	100.00	1	44.00	44.00	0.00	0.00	0.00	0.00	0.00	0.00	0	0	0	0	55.0000
302	8.00	10.00	10.00	0.00	1.0500	100.00	1	8.00	8.00	0.00	0.00	0.00	0.00	0.00	0.00	0	0	0	0	20.0000
302	8.00	10.00	10.00	0.00	1.0500	100.00	1	8.00	8.00	0.00	0.00	0.00	0.00	0.00	0.00	0	0	0	0	20.0000
302	55.00	19.00	19.00	-15.00	1.0500	100.00	1	55.00	55.00	0.00	0.00	0.00	0.00	0.00	0.00	0	0	0	0	55.0000
302	55.00	19.00	19.00	-15.00	1.0500	100.00	1	55.00	55.00	0.00	0.00	0.00	0.00	0.00	0.00	0	0	0	0	55.0000
303	0.00	0.00	0.00	0.00	1.0000	100.00	1	0.00	0.00	0.00	0.00	0.00	0.00	0.00	0.00	0	0	0	0	847.0000
307	55.00	19.00	19.00	-15.00	0.9568	100.00	1	55.00	55.00	0.00	0.00	0.00	0.00	0.00	0.00	0	0	0	0	55.0000
307	55.00	19.00	19.00	-15.00	0.9568	100.00	1	55.00	55.00	0.00	0.00	0.00	0.00	0.00	0.00	0	0	0	0	55.0000
308	0.00	0.00	0.00	0.00	1.0000	100.00	1	0.00	0.00	0.00	0.00	0.00	0.00	0.00	0.00	0	0	0	0	100.9000
309	0.00	0.00	0.00	0.00	1.0000	100.00	1	0.00	0.00	0.00	0.00	0.00	0.00	0.00	0.00	0	0	0	0	148.3000
310	0.00	0.00	0.00	0.00	1.0000	100.00	1	0.00	0.00	0.00	0.00	0.00	0.00	0.00	0.00	0	0	0	0	51.7000
310	0.00	0.00	0.00	0.00	1.0000	100.00	1	0.00	0.00	0.00	0.00	0.00	0.00	0.00	0.00	0	0	0	0	51.6000
312	0.00	0.00	0.00	0.00	1.0000	100.00	1	0.00	0.00	0.00	0.00	0.00	0.00	0.00	0.00	0	0	0	0	94.1000
313	355.00	150.00	150.00	-25.00	1.0350	100.00	1	355.00	355.00	0.00	0.00	0.00	0.00	0.00	0.00	0	0	0	0	355.0000
313	0.00	0.00	0.00	0.00	1.0350	100.00	1	0.00	0.00	0.00	0.00	0.00	0.00	0.00	0.00	0	0	0	0	95.1000
313	0.00	0.00	0.00	0.00	1.0350	100.00	1	0.00	0.00	0.00	0.00	0.00	0.00	0.00	0.00	0	0	0	0	93.3000
313	0.00	0.00	0.00	0.00	1.0350	100.00	1	0.00	0.00	0.00	0.00	0.00	0.00	0.00	0.00	0	0	0	0	101.7000
313	0.00	0.00	0.00	0.00	1.0350	100.00	1	0.00	0.00	0.00	0.00	0.00	0.00	0.00	0.00	0	0	0	0	63.1000
313	0.00	0.00	0.00	0.00	1.0350	100.00	1	0.00	0.00	0.00	0.00	0.00	0.00	0.00	0.00	0	0	0	0	65.4000
313	0.00	0.00	0.00	0.00	1.0350	100.00	1	0.00	0.00	0.00	0.00	0.00	0.00	0.00	0.00	0	0	0	0	67.0000
313	0.00	0.00	0.00	0.00	1.0350	100.00	1	0.00	0.00	0.00	0.00	0.00	0.00	0.00	0.00	0	0	0	0	64.8000
313	0.00	0.00	0.00	0.00	1.0350	100.00	1	0.00	0.00	0.00	0.00	0.00	0.00	0.00	0.00	0	0	0	0	63.8000
313	0.00	0.00	0.00	0.00	1.0350	100.00	1	0.00	0.00	0.00	0.00	0.00	0.00	0.00	0.00	0	0	0	0	64.1000
313	0.00	0.00	0.00	0.00	1.0350	100.00	1	0.00	0.00	0.00	0.00	0.00	0.00	0.00	0.00	0	0	0	0	66.6000
313	0.00	0.00	0.00	0.00	1.0350	100.00	1	0.00	0.00	0.00	0.00	0.00	0.00	0.00	0.00	0	0	0	0	62.4000
313	0.00	0.00	0.00	0.00	1.0350	100.00	1	0.00	0.00	0.00	0.00	0.00	0.00	0.00	0.00	0	0	0	0	66.9000
313	0.00	0.00	0.00	0.00	1.0350	100.00	1	0.00	0.00	0.00	0.00	0.00	0.00	0.00	0.00	0	0	0	0	65.2000
313	0.00	0.00	0.00	0.00	1.0350	100.00	1	0.00	0.00	0.00	0.00	0.00	0.00	0.00	0.00	0	0	0	0	27.8000
313	0.00	0.00	0.00	0.00	1.0350	100.00	1	0.00	0.00	0.00	0.00	0.00	0.00	0.00	0.00	0	0	0	0	27.2000
313	0.00	0.00	0.00	0.00	1.0350	100.00	1	0.00	0.00	0.00	0.00	0.00	0.00	0.00	0.00	0	0	0	0	50.0000
314	0.00	0.00	200.00	-50.00	1.0500	100.00	0	0.00	0.00	0.00	0.00	0.00	0.00	0.00	0.00	0	0	0	0	0.0000
314	0.00	0.00	0.00	0.00	1.0500	100.00	1	0.00	0.00	0.00	0.00	0.00	0.00	0.00	0.00	0	0	0	0	51.6000
314	0.00	0.00	0.00	0.00	1.0500	100.00	1	0.00	0.00	0.00	0.00	0.00	0.00	0.00	0.00	0	0	0	0	51.6000
314	0.00	0.00	0.00	0.00	1.0500	100.00	1	0.00	0.00	0.00	0.00	0.00	0.00	0.00	0.00	0	0	0	0	92.7000
314	0.00	0.00	0.00	0.00	1.0500	100.00	1	0.00	0.00	0.00	0.00	0.00	0.00	0.00	0.00	0	0	0	0	51.6000
315	5.00	6.00	6.00	0.00	1.0422	100.00	1	5.00	5.00	0.00	0.00	0.00	0.00	0.00	0.00	0	0	0	0	12.0000
315	5.00	6.00	6.00	0.00	1.0422	100.00	1	5.00	5.00	0.00	0.00	0.00	0.00	0.00	0.00	0	0	0	0	12.0000
315	5.00	6.00	6.00	0.00	1.0422	100.00	1	5.00	5.00	0.00	0.00	0.00	0.00	0.00	0.00	0	0	0	0	12.0000
315	5.00	6.00	6.00	0.00	1.0422	100.00	1	5.00	5.00	0.00	0.00	0.00	0.00	0.00	0.00	0	0	0	0	12.0000
315	5.00	6.00	6.00	0.00	1.0422	100.00	1	5.00	5.00	0.00	0.00	0.00	0.00	0.00	0.00	0	0	0	0	12.0000
315	55.00	19.00	19.00	-15.00	1.0422	100.00	1	55.00	55.00	0.00	0.00	0.00	0.00	0.00	0.00	0	0	0	0	55.0000
315	55.00	19.00	19.00	-15.00	1.0422	100.00	1	55.00	55.00	0.00	0.00	0.00	0.00	0.00	0.00	0	0	0	0	55.0000
315	55.00	60.00	60.00	0.00	1.0422	100.00	1	55.00	55.00	0.00	0.00	0.00	0.00	0.00	0.00	0	0	0	0	55.0000
316	155.00	80.00	80.00	-50.00	1.0449	100.00	1	155.00	155.00	0.00	0.00	0.00	0.00	0.00	0.00	0	0	0	0	155.0000
316	0.00	0.00	0.00	0.00	1.0449	100.00	0	0.00	0.00	0.00	0.00	0.00	0.00	0.00	0.00	0	0	0	0	0.0000
317	0.00	0.00	0.00	0.00	1.0000	100.00	1	0.00	0.00	0.00	0.00	0.00	0.00	0.00	0.00	0	0	0	0	799.1000
318	355.00	102.84	150.00	-25.00	1.0500	100.00	1	355.00	355.00	0.00	0.00	0.00	0.00	0.00	0.00	0	0	0	0	355.0000
319	0.00	0.00	0.00	0.00	1.0000	100.00	1	0.00	0.00	0.00	0.00	0.00	0.00	0.00	0.00	0	0	0	0	188.2000
320	0.00	0.00	0.00	0.00	1.0000	100.00	1	0.00	0.00	0.00	0.00	0.00	0.00	0.00	0.00	0	0	0	0	51.6000
320	0.00	0.00	0.00	0.00	1.0000	100.00	1	0.00	0.00	0.00	0.00	0.00	0.00	0.00	0.00	0	0	0	0	27.3000
320	0.00	0.00	0.00	0.00	1.0000	100.00	1	0.00	0.00	0.00	0.00	0.00	0.00	0.00	0.00	0	0	0	0	27.0000
320	0.00	0.00	0.00	0.00	1.0000	100.00	1	0.00	0.00	0.00	0.00	0.00	0.00	0.00	0.00	0	0	0	0	28.3000
320	0.00	0.00	0.00	0.00	1.0000	100.00	1	0.00	0.00	0.00	0.00	0.00	0.00	0.00	0.00	0	0	0	0	27.0000
320	0.00	0.00	0.00	0.00	1.0000	100.00	1	0.00	0.00	0.00	0.00	0.00	0.00	0.00	0.00	0	0	0	0	28.2000
320	0.00	0.00	0.00	0.00	1.0000	100.00	1	0.00	0.00	0.00	0.00	0.00	0.00	0.00	0.00	0	0	0	0	9.4000
321	355.00	45.54	150.00	-25.00	1.0500	100.00	1	355.00	355.00	0.00	0.00	0.00	0.00	0.00	0.00	0	0	0	0	355.0000
322	55.00	-5.79	19.00	-15.00	1.0500	100.00	1	55.00	55.00	0.00	0.00	0.00	0.00	0.00	0.00	0	0	0	0	55.0000
322	55.00	-5.79	19.00	-15.00	1.0500	100.00	1	55.00	55.00	0.00	0.00	0.00	0.00	0.00	0.00	0	0	0	0	55.0000
322	50.00	-5.79	16.00	-10.00	1.0500	100.00	1	50.00	50.00	0.00	0.00	0.00	0.00	0.00	0.00	0	0	0	0	50.0000
322	50.00	-5.79	16.00	-10.00	1.0500	100.00	1	50.00	50.00	0.00	0.00	0.00	0.00	0.00	0.00	0	0	0	0	50.0000
322	50.00	-5.79	16.00	-10.00	1.0500	100.00	1	50.00	50.00	0.00	0.00	0.00	0.00	0.00	0.00	0	0	0	0	50.0000
322	50.00	-5.79	16.00	-10.00	1.0500	100.00	1	50.00	50.00	0.00	0.00	0.00	0.00	0.00	0.00	0	0	0	0	50.0000
323	355.00	91.41	150.00	-25.00	1.0500	100.00	1	355.00	355.00	0.00	0.00	0.00	0.00	0.00	0.00	0	0	0	0	355.0000
323	355.00	91.41	150.00	-25.00	1.0500	100.00	1	355.00	355.00	0.00	0.00	0.00	0.00	0.00	0.00	0	0	0	0	355.0000
324	0.00	0.00	0.00	0.00	1.0000	100.00	1	0.00	0.00	0.00	0.00	0.00	0.00	0.00	0.00	0	0	0	0	49.7000
324	0.00	0.00	0.00	0.00	1.0000	100.00	1	0.00	0.00	0.00	0.00	0.00	0.00	0.00	0.00	0	0	0	0	51.6000
324	0.00	0.00	0.00	0.00	1.0000	100.00	1	0.00	0.00	0.00	0.00	0.00	0.00	0.00	0.00	0	0	0	0	51.0000
];

%% generator cost data
mpc.gencost = [
1	0	0	4	8.00	1868.69	12.00	2260.14	16.00	2652.43	20.00	3080.98
1	0	0	4	8.00	1868.69	12.00	2260.14	16.00	2652.43	20.00	3080.98
1	0	0	4	30.00	1267.32	45.33	1484.91	60.67	1745.14	76.00	2022.25
1	0	0	4	30.00	1267.32	45.33	1484.91	60.67	1745.14	76.00	2022.25
1	0	0	4	0.00	0.00	8.63	0.00	17.27	0.00	25.90	0.00
1	0	0	4	0.00	0.00	8.90	0.00	17.80	0.00	26.70	0.00
1	0	0	4	0.00	0.00	8.73	0.00	17.47	0.00	26.20	0.00
1	0	0	4	0.00	0.00	8.60	0.00	17.20	0.00	25.80	0.00
1	0	0	4	8.00	1923.83	12.00	2279.72	16.00	2658.39	20.00	3056.72
1	0	0	4	8.00	1923.83	12.00	2279.72	16.00	2658.39	20.00	3056.72
1	0	0	4	30.00	1289.01	45.33	1572.11	60.67	1891.75	76.00	2237.00
1	0	0	4	30.00	1289.01	45.33	1572.11	60.67	1891.75	76.00	2237.00
1	0	0	4	0.00	0.00	8.53	0.00	17.07	0.00	25.60	0.00
1	0	0	4	0.00	0.00	8.43	0.00	16.87	0.00	25.30	0.00
1	0	0	4	0.00	0.00	20.50	0.00	41.00	0.00	61.50	0.00
1	0	0	4	0.00	0.00	8.93	0.00	17.87	0.00	26.80	0.00
1	0	0	4	170.00	8717.64	231.67	10148.72	293.33	11800.81	355.00	13683.51
1	0	0	4	22.00	1712.43	33.00	2007.43	44.00	2332.48	55.00	2665.88
1	0	0	4	22.00	1712.43	33.00	2007.43	44.00	2332.48	55.00	2665.88
1	0	0	4	22.00	1712.43	33.00	2007.43	44.00	2332.48	55.00	2665.88
1	0	0	4	22.00	1712.43	33.00	2007.43	44.00	2332.48	55.00	2665.88
1	0	0	4	0.00	0.00	31.20	0.00	62.40	0.00	93.60	0.00
2	0	0	1	0	0	0	0	0	0	0	0
1	0	0	3	0.00	0.00	0.33	0.00	0.67	0.00	0	0
1	0	0	4	5.00	1519.81	7.33	1810.32	9.67	2102.11	12.00	2413.94
1	0	0	4	5.00	1519.81	7.33	1810.32	9.67	2102.11	12.00	2413.94
1	0	0	4	62.00	2765.00	93.00	3397.40	124.00	4094.68	155.00	4933.24
1	0	0	4	62.00	2955.57	93.00	3565.82	124.00	4231.51	155.00	4971.65
1	0	0	4	170.00	8633.71	231.67	10025.96	293.33	11737.50	355.00	13739.33
1	0	0	4	0.00	0.00	3.10	0.00	6.20	0.00	9.30	0.00
1	0	0	4	0.00	0.00	3.23	0.00	6.47	0.00	9.70	0.00
1	0	0	4	0.00	0.00	3.13	0.00	6.27	0.00	9.40	0.00
1	0	0	4	0.00	0.00	3.03	0.00	6.07	0.00	9.10	0.00
1	0	0	4	0.00	0.00	3.03	0.00	6.07	0.00	9.10	0.00
1	0	0	4	0.00	0.00	3.23	0.00	6.47	0.00	9.70	0.00
1	0	0	4	0.00	0.00	3.93	0.00	7.87	0.00	11.80	0.00
1	0	0	4	0.00	0.00	3.73	0.00	7.47	0.00	11.20	0.00
1	0	0	4	0.00	0.00	3.43	0.00	6.87	0.00	10.30	0.00
1	0	0	4	0.00	0.00	1.50	0.00	3.00	0.00	4.50	0.00
1	0	0	4	0.00	0.00	22.20	0.00	44.40	0.00	66.60	0.00
1	0	0	4	396.00	6417.98	397.33	6428.79	398.67	6439.59	400.00	6450.39
1	0	0	4	0.00	0.00	16.67	0.00	33.33	0.00	50.00	0.00
1	0	0	4	0.00	0.00	16.67	0.00	33.33	0.00	50.00	0.00
1	0	0	4	0.00	0.00	16.67	0.00	33.33	0.00	50.00	0.00
1	0	0	4	0.00	0.00	16.67	0.00	33.33	0.00	50.00	0.00
1	0	0	4	0.00	0.00	16.67	0.00	33.33	0.00	50.00	0.00
1	0	0	4	0.00	0.00	16.67	0.00	33.33	0.00	50.00	0.00
1	0	0	4	0.00	0.00	237.83	0.00	475.67	0.00	713.50	0.00
1	0	0	4	62.00	2642.06	93.00	3244.38	124.00	3956.40	155.00	4980.49
1	0	0	4	140.00	6380.57	210.00	7779.42	280.00	9294.73	350.00	10935.37
1	0	0	4	22.00	1666.08	33.00	1955.00	44.00	2282.84	55.00	2624.83
1	0	0	4	22.00	1666.08	33.00	1955.00	44.00	2282.84	55.00	2624.83
1	0	0	4	22.00	1666.08	33.00	1955.00	44.00	2282.84	55.00	2624.83
1	0	0	4	8.00	1817.02	12.00	2146.92	16.00	2482.53	20.00	2928.88
1	0	0	4	8.00	1817.02	12.00	2146.92	16.00	2482.53	20.00	2928.88
1	0	0	4	30.00	1489.35	45.33	1829.54	60.67	2189.02	76.00	2583.99
1	0	0	4	0.00	0.00	16.67	0.00	33.33	0.00	50.00	0.00
1	0	0	4	8.00	1780.01	12.00	2104.41	16.00	2453.88	20.00	2845.26
1	0	0	4	8.00	1780.01	12.00	2104.41	16.00	2453.88	20.00	2845.26
1	0	0	4	30.00	1384.77	45.33	1708.56	60.67	2034.97	76.00	2453.18
1	0	0	4	30.00	1384.77	45.33	1708.56	60.67	2034.97	76.00	2453.18
1	0	0	4	22.00	1869.01	33.00	2245.47	44.00	2650.87	55.00	3119.30
1	0	0	4	22.00	1869.01	33.00	2245.47	44.00	2650.87	55.00	3119.30
1	0	0	4	0.00	0.00	66.67	0.00	133.33	0.00	200.00	0.00
1	0	0	4	170.00	9355.99	231.67	10874.33	293.33	12547.28	355.00	14644.52
1	0	0	4	22.00	1712.43	33.00	2007.43	44.00	2332.48	55.00	2665.88
1	0	0	4	22.00	1712.43	33.00	2007.43	44.00	2332.48	55.00	2665.88
1	0	0	4	0.00	0.00	4.40	0.00	8.80	0.00	13.20	0.00
1	0	0	3	0.00	0.00	0.33	0.00	0.67	0.00	0	0
1	0	0	4	22.00	1787.09	33.00	2072.21	44.00	2370.97	55.00	2731.04
1	0	0	4	22.00	1787.09	33.00	2072.21	44.00	2370.97	55.00	2731.04
1	0	0	4	0.00	0.00	16.67	0.00	33.33	0.00	50.00	0.00
1	0	0	4	0.00	0.00	16.67	0.00	33.33	0.00	50.00	0.00
1	0	0	4	0.00	0.00	16.67	0.00	33.33	0.00	50.00	0.00
1	0	0	4	0.00	0.00	41.70	0.00	83.40	0.00	125.10	0.00
1	0	0	4	62.00	2577.70	93.00	3153.48	124.00	3830.64	155.00	4564.03
1	0	0	4	170.00	11084.06	231.67	12375.63	293.33	13712.02	355.00	15547.73
1	0	0	4	170.00	8483.04	231.67	9909.33	293.33	11532.66	355.00	13760.30
1	0	0	4	0.00	0.00	16.67	0.00	33.33	0.00	50.00	0.00
1	0	0	4	0.00	0.00	16.67	0.00	33.33	0.00	50.00	0.00
1	0	0	4	0.00	0.00	16.67	0.00	33.33	0.00	50.00	0.00
1	0	0	4	0.00	0.00	16.67	0.00	33.33	0.00	50.00	0.00
1	0	0	4	0.00	0.00	16.67	0.00	33.33	0.00	50.00	0.00
1	0	0	4	0.00	0.00	16.67	0.00	33.33	0.00	50.00	0.00
1	0	0	4	62.00	2603.13	93.00	3193.19	124.00	3803.58	155.00	4436.57
1	0	0	4	62.00	2603.13	93.00	3193.19	124.00	3803.58	155.00	4436.57
1	0	0	4	140.00	5963.86	210.00	7284.13	280.00	8899.03	350.00	10622.25
1	0	0	4	22.00	2513.31	33.00	2923.59	44.00	3360.80	55.00	3817.30
1	0	0	4	22.00	2513.31	33.00	2923.59	44.00	3360.80	55.00	3817.30
1	0	0	4	22.00	2513.31	33.00	2923.59	44.00	3360.80	55.00	3817.30
1	0	0	4	8.00	1906.28	12.00	2255.30	16.00	2654.08	20.00	3075.55
1	0	0	4	8.00	1906.28	12.00	2255.30	16.00	2654.08	20.00	3075.55
1	0	0	4	22.00	1745.78	33.00	2058.95	44.00	2381.10	55.00	2862.27
1	0	0	4	22.00	1745.78	33.00	2058.95	44.00	2381.10	55.00	2862.27
1	0	0	4	8.00	1906.28	12.00	2255.30	16.00	2654.08	20.00	3075.55
1	0	0	4	8.00	1906.28	12.00	2255.30	16.00	2654.08	20.00	3075.55
1	0	0	4	22.00	2059.98	33.00	2431.69	44.00	2853.89	55.00	3278.88
1	0	0	4	22.00	2059.98	33.00	2431.69	44.00	2853.89	55.00	3278.88
1	0	0	4	0.00	0.00	282.33	0.00	564.67	0.00	847.00	0.00
1	0	0	4	22.00	1755.62	33.00	2062.46	44.00	2383.88	55.00	2774.10
1	0	0	4	22.00	1755.62	33.00	2062.46	44.00	2383.88	55.00	2774.10
1	0	0	4	0.00	0.00	33.63	0.00	67.27	0.00	100.90	0.00
1	0	0	4	0.00	0.00	49.43	0.00	98.87	0.00	148.30	0.00
1	0	0	4	0.00	0.00	17.23	0.00	34.47	0.00	51.70	0.00
1	0	0	4	0.00	0.00	17.20	0.00	34.40	0.00	51.60	0.00
1	0	0	4	0.00	0.00	31.37	0.00	62.73	0.00	94.10	0.00
1	0	0	4	170.00	7917.37	231.67	8887.49	293.33	10537.42	355.00	12618.84
1	0	0	4	0.00	0.00	31.70	0.00	63.40	0.00	95.10	0.00
1	0	0	4	0.00	0.00	31.10	0.00	62.20	0.00	93.30	0.00
1	0	0	4	0.00	0.00	33.90	0.00	67.80	0.00	101.70	0.00
1	0	0	4	0.00	0.00	21.03	0.00	42.07	0.00	63.10	0.00
1	0	0	4	0.00	0.00	21.80	0.00	43.60	0.00	65.40	0.00
1	0	0	4	0.00	0.00	22.33	0.00	44.67	0.00	67.00	0.00
1	0	0	4	0.00	0.00	21.60	0.00	43.20	0.00	64.80	0.00
1	0	0	4	0.00	0.00	21.27	0.00	42.53	0.00	63.80	0.00
1	0	0	4	0.00	0.00	21.37	0.00	42.73	0.00	64.10	0.00
1	0	0	4	0.00	0.00	22.20	0.00	44.40	0.00	66.60	0.00
1	0	0	4	0.00	0.00	20.80	0.00	41.60	0.00	62.40	0.00
1	0	0	4	0.00	0.00	22.30	0.00	44.60	0.00	66.90	0.00
1	0	0	4	0.00	0.00	21.73	0.00	43.47	0.00	65.20	0.00
1	0	0	4	0.00	0.00	9.27	0.00	18.53	0.00	27.80	0.00
1	0	0	4	0.00	0.00	9.07	0.00	18.13	0.00	27.20	0.00
1	0	0	4	0.00	0.00	16.67	0.00	33.33	0.00	50.00	0.00
1	0	0	3	0.00	0.00	0.33	0.00	0.67	0.00	0	0
1	0	0	4	0.00	0.00	17.20	0.00	34.40	0.00	51.60	0.00
1	0	0	4	0.00	0.00	17.20	0.00	34.40	0.00	51.60	0.00
1	0	0	4	0.00	0.00	30.90	0.00	61.80	0.00	92.70	0.00
1	0	0	4	0.00	0.00	17.20	0.00	34.40	0.00	51.60	0.00
1	0	0	4	5.00	1122.86	7.33	1298.88	9.67	1533.14	12.00	1822.71
1	0	0	4	5.00	1122.86	7.33	1298.88	9.67	1533.14	12.00	1822.71
1	0	0	4	5.00	1122.86	7.33	1298.88	9.67	1533.14	12.00	1822.71
1	0	0	4	5.00	1122.86	7.33	1298.88	9.67	1533.14	12.00	1822.71
1	0	0	4	5.00	1122.86	7.33	1298.88	9.67	1533.14	12.00	1822.71
1	0	0	4	22.00	1465.28	33.00	1755.70	44.00	2051.55	55.00	2401.97
1	0	0	4	22.00	1465.28	33.00	1755.70	44.00	2051.55	55.00	2401.97
1	0	0	4	22.00	1465.28	33.00	1755.70	44.00	2051.55	55.00	2401.97
1	0	0	4	62.00	2861.86	93.00	3516.47	124.00	4176.40	155.00	5021.91
2	0	0	1	0	0	0	0	0	0	0	0
1	0	0	4	0.00	0.00	266.37	0.00	532.73	0.00	799.10	0.00
1	0	0	4	170.00	9818.57	231.67	11474.02	293.33	13156.08	355.00	15100.39
1	0	0	4	0.00	0.00	62.73	0.00	125.47	0.00	188.20	0.00
1	0	0	4	0.00	0.00	17.20	0.00	34.40	0.00	51.60	0.00
1	0	0	4	0.00	0.00	9.10	0.00	18.20	0.00	27.30	0.00
1	0	0	4	0.00	0.00	9.00	0.00	18.00	0.00	27.00	0.00
1	0	0	4	0.00	0.00	9.43	0.00	18.87	0.00	28.30	0.00
1	0	0	4	0.00	0.00	9.00	0.00	18.00	0.00	27.00	0.00
1	0	0	4	0.00	0.00	9.40	0.00	18.80	0.00	28.20	0.00
1	0	0	4	0.00	0.00	3.13	0.00	6.27	0.00	9.40	0.00
1	0	0	4	170.00	8640.32	231.67	10042.15	293.33	11639.83	355.00	13733.24
1	0	0	4	22.00	1545.07	33.00	1801.75	44.00	2093.24	55.00	2400.09
1	0	0	4	22.00	1545.07	33.00	1801.75	44.00	2093.24	55.00	2400.09
1	0	0	4	0.00	0.00	16.67	0.00	33.33	0.00	50.00	0.00
1	0	0	4	0.00	0.00	16.67	0.00	33.33	0.00	50.00	0.00
1	0	0	4	0.00	0.00	16.67	0.00	33.33	0.00	50.00	0.00
1	0	0	4	0.00	0.00	16.67	0.00	33.33	0.00	50.00	0.00
1	0	0	4	170.00	9370.53	231.67	11000.33	293.33	12867.45	355.00	14823.98
1	0	0	4	170.00	9370.53	231.67	11000.33	293.33	12867.45	355.00	14823.98
1	0	0	4	0.00	0.00	16.57	0.00	33.13	0.00	49.70	0.00
1	0	0	4	0.00	0.00	17.20	0.00	34.40	0.00	51.60	0.00
1	0	0	4	0.00	0.00	17.00	0.00	34.00	0.00	51.00	0.00
];

%% branch data
mpc.branch = [
101	102	0.003000	0.014000	0.46100	175.00	175.00	175.00	0.00000	0.000	1	0.00	0.00	7.85	-26.19	-7.85	-24.31
101	103	0.055000	0.211000	0.05700	175.00	175.00	175.00	0.00000	0.000	1	0.00	0.00	-0.61	14.67	0.77	-20.09
101	105	0.022000	0.085000	0.02300	175.00	175.00	175.00	0.00000	0.000	1	0.00	0.00	52.76	0.21	-52.20	-0.55
102	104	0.033000	0.127000	0.03400	175.00	175.00	175.00	0.00000	0.000	1	0.00	0.00	34.94	13.72	-34.50	-15.65
102	106	0.050000	0.192000	0.05200	175.00	175.00	175.00	0.00000	0.000	1	0.00	0.00	43.91	-4.74	-43.03	2.51
103	109	0.031000	0.119000	0.03200	175.00	175.00	175.00	0.00000	0.000	1	0.00	0.00	3.74	-15.58	-3.68	12.50
103	124	0.002000	0.084000	0.00000	400.00	400.00	400.00	1.01500	0.000	1	0.00	0.00	-184.51	-1.32	185.19	30.13
104	109	0.027000	0.104000	0.02800	175.00	175.00	175.00	0.00000	0.000	1	0.00	0.00	-39.50	0.65	39.91	-2.00
105	110	0.023000	0.088000	0.02400	175.00	175.00	175.00	0.00000	0.000	1	0.00	0.00	-18.80	-13.45	18.91	11.26
106	110	0.014000	0.061000	2.45900	175.00	175.00	175.00	0.00000	0.000	1	0.00	0.00	-92.97	-137.10	94.11	-124.54
107	108	0.016000	0.061000	0.01700	175.00	175.00	175.00	0.00000	0.000	1	0.00	0.00	168.62	19.75	-164.43	-5.60
107	203	0.042000	0.161000	0.04400	175.00	175.00	175.00	0.00000	0.000	1	0.00	0.00	61.38	4.76	-59.93	-3.89
108	109	0.043000	0.165000	0.04500	175.00	175.00	175.00	0.00000	0.000	1	0.00	0.00	-10.64	-5.58	10.70	1.08
108	110	0.043000	0.165000	0.04500	175.00	175.00	175.00	0.00000	0.000	1	0.00	0.00	4.07	-23.82	-3.87	19.78
109	111	0.002000	0.084000	0.00000	400.00	400.00	400.00	1.03000	0.000	1	0.00	0.00	-93.72	-30.19	93.92	38.39
109	112	0.002000	0.084000	0.00000	400.00	400.00	400.00	1.03000	0.000	1	0.00	0.00	-128.20	-17.39	128.53	31.54
110	111	0.002000	0.084000	0.00000	400.00	400.00	400.00	1.01500	0.000	1	0.00	0.00	-134.40	19.57	134.74	-5.09
110	112	0.002000	0.084000	0.00000	400.00	400.00	400.00	1.01500	0.000	1	0.00	0.00	-169.76	33.94	170.32	-10.41
111	113	0.006000	0.048000	0.10000	500.00	500.00	500.00	0.00000	0.000	1	0.00	0.00	-156.41	3.53	157.80	-2.99
111	114	0.005000	0.042000	0.08800	500.00	500.00	500.00	0.00000	0.000	1	0.00	0.00	-72.25	-36.84	72.55	29.89
112	113	0.006000	0.048000	0.10000	500.00	500.00	500.00	0.00000	0.000	1	0.00	0.00	-94.10	-23.46	94.63	17.15
112	123	0.012000	0.097000	0.20300	500.00	500.00	500.00	0.00000	0.000	1	0.00	0.00	-204.75	2.33	209.61	15.19
113	123	0.011000	0.087000	0.18200	500.00	500.00	500.00	0.00000	0.000	1	0.00	0.00	-179.75	8.11	183.11	-1.36
113	215	0.010000	0.075000	0.15800	500.00	500.00	500.00	0.00000	0.000	1	0.00	0.00	-117.68	-0.26	118.98	-7.05
114	116	0.005000	0.059000	0.08200	500.00	500.00	500.00	0.00000	0.000	1	0.00	0.00	-266.55	34.37	269.88	-4.06
115	116	0.002000	0.017000	0.03600	500.00	500.00	500.00	0.00000	0.000	1	0.00	0.00	14.87	-24.06	-14.86	20.24
115	121	0.006000	0.049000	0.10300	500.00	500.00	500.00	0.00000	0.000	1	0.00	0.00	-177.22	7.89	178.96	-4.93
115	121	0.006000	0.049000	0.10300	500.00	500.00	500.00	0.00000	0.000	1	0.00	0.00	-177.22	7.89	178.96	-4.93
115	124	0.007000	0.052000	0.10900	500.00	500.00	500.00	0.00000	0.000	1	0.00	0.00	187.57	36.28	-185.19	-30.13
116	117	0.003000	0.026000	0.05500	500.00	500.00	500.00	0.00000	0.000	1	0.00	0.00	-241.13	22.88	242.74	-14.94
116	119	0.003000	0.023000	0.04900	500.00	500.00	500.00	0.00000	0.000	1	0.00	0.00	41.11	20.94	-41.05	-25.79
117	118	0.002000	0.014000	0.03000	500.00	500.00	500.00	0.00000	0.000	1	0.00	0.00	-111.35	2.55	111.58	-4.27
117	122	0.014000	0.105000	0.22100	500.00	500.00	500.00	0.00000	0.000	1	0.00	0.00	-131.39	12.39	133.67	-19.65
118	121	0.003000	0.026000	0.05500	500.00	500.00	500.00	0.00000	0.000	1	0.00	0.00	-44.79	2.38	44.84	-7.96
118	121	0.003000	0.026000	0.05500	500.00	500.00	500.00	0.00000	0.000	1	0.00	0.00	-44.79	2.38	44.84	-7.96
119	120	0.005000	0.040000	0.08300	500.00	500.00	500.00	0.00000	0.000	1	0.00	0.00	-69.98	-5.60	70.20	-1.59
119	120	0.005000	0.040000	0.08300	500.00	500.00	500.00	0.00000	0.000	1	0.00	0.00	-69.98	-5.60	70.20	-1.59
120	123	0.003000	0.022000	0.04600	500.00	500.00	500.00	0.00000	0.000	1	0.00	0.00	-134.20	-11.41	134.70	10.02
120	123	0.003000	0.022000	0.04600	500.00	500.00	500.00	0.00000	0.000	1	0.00	0.00	-134.20	-11.41	134.70	10.02
121	122	0.009000	0.068000	0.14200	500.00	500.00	500.00	0.00000	0.000	1	0.00	0.00	-164.06	22.62	166.33	-21.11
325	121	0.012000	0.097000	0.20300	500.00	500.00	500.00	0.00000	0.000	1	0.00	0.00	-119.78	9.33	121.39	-18.68
123	217	0.010000	0.074000	0.15500	500.00	500.00	500.00	0.00000	0.000	1	0.00	0.00	7.88	-8.77	-7.87	-8.27
201	202	0.003000	0.014000	0.46100	175.00	175.00	175.00	0.00000	0.000	1	0.00	0.00	5.25	-26.54	-5.25	-24.29
201	203	0.055000	0.211000	0.05700	175.00	175.00	175.00	0.00000	0.000	1	0.00	0.00	-24.88	19.95	25.45	-23.84
201	205	0.022000	0.085000	0.02300	175.00	175.00	175.00	0.00000	0.000	1	0.00	0.00	53.62	6.33	-53.04	-6.57
202	204	0.033000	0.127000	0.03400	175.00	175.00	175.00	0.00000	0.000	1	0.00	0.00	31.49	19.07	-31.07	-21.04
202	206	0.050000	0.192000	0.05200	175.00	175.00	175.00	0.00000	0.000	1	0.00	0.00	44.76	-0.50	-43.84	-1.61
203	209	0.031000	0.119000	0.03200	175.00	175.00	175.00	0.00000	0.000	1	0.00	0.00	38.87	-12.10	-38.38	10.63
203	224	0.002000	0.084000	0.00000	400.00	400.00	400.00	1.01500	0.000	1	0.00	0.00	-184.39	2.83	185.07	25.54
204	209	0.027000	0.104000	0.02800	175.00	175.00	175.00	0.00000	0.000	1	0.00	0.00	-42.93	6.04	43.43	-7.03
205	210	0.023000	0.088000	0.02400	175.00	175.00	175.00	0.00000	0.000	1	0.00	0.00	-17.96	-7.43	18.04	5.14
206	210	0.014000	0.061000	2.45900	175.00	175.00	175.00	0.00000	0.000	1	0.00	0.00	-92.16	-131.97	93.28	-126.63
207	208	0.016000	0.061000	0.01700	175.00	175.00	175.00	0.00000	0.000	1	0.00	0.00	-15.00	13.00	15.07	-14.32
208	209	0.043000	0.165000	0.04500	175.00	175.00	175.00	0.00000	0.000	1	0.00	0.00	-101.33	0.23	106.08	13.59
208	210	0.043000	0.165000	0.04500	175.00	175.00	175.00	0.00000	0.000	1	0.00	0.00	-84.74	-20.91	88.23	29.76
209	211	0.002000	0.084000	0.00000	400.00	400.00	400.00	1.03000	0.000	1	0.00	0.00	-125.37	-35.42	125.72	49.96
209	212	0.002000	0.084000	0.00000	400.00	400.00	400.00	1.03000	0.000	1	0.00	0.00	-160.76	-17.78	161.29	40.18
210	211	0.002000	0.084000	0.00000	400.00	400.00	400.00	1.01500	0.000	1	0.00	0.00	-179.31	15.98	179.92	9.81
210	212	0.002000	0.084000	0.00000	400.00	400.00	400.00	1.01500	0.000	1	0.00	0.00	-215.25	35.75	216.15	2.14
211	213	0.006000	0.048000	0.10000	500.00	500.00	500.00	0.00000	0.000	1	0.00	0.00	-218.89	-13.73	221.62	24.71
211	214	0.005000	0.042000	0.08800	500.00	500.00	500.00	0.00000	0.000	1	0.00	0.00	-86.74	-46.03	87.18	40.20
212	213	0.006000	0.048000	0.10000	500.00	500.00	500.00	0.00000	0.000	1	0.00	0.00	-152.09	-49.64	153.54	50.58
212	223	0.012000	0.097000	0.20300	500.00	500.00	500.00	0.00000	0.000	1	0.00	0.00	-225.35	7.32	231.27	18.82
213	223	0.011000	0.087000	0.18200	500.00	500.00	500.00	0.00000	0.000	1	0.00	0.00	-175.16	24.90	178.34	-19.79
214	216	0.005000	0.059000	0.08200	500.00	500.00	500.00	0.00000	0.000	1	0.00	0.00	-281.18	46.10	284.88	-11.44
215	216	0.002000	0.017000	0.03600	500.00	500.00	500.00	0.00000	0.000	1	0.00	0.00	4.76	-24.78	-4.75	20.93
215	221	0.006000	0.049000	0.10300	500.00	500.00	500.00	0.00000	0.000	1	0.00	0.00	-184.07	11.21	185.95	-7.13
215	221	0.006000	0.049000	0.10300	500.00	500.00	500.00	0.00000	0.000	1	0.00	0.00	-184.07	11.21	185.95	-7.13
215	224	0.007000	0.052000	0.10900	500.00	500.00	500.00	0.00000	0.000	1	0.00	0.00	187.41	31.40	-185.07	-25.54
216	217	0.003000	0.026000	0.05500	500.00	500.00	500.00	0.00000	0.000	1	0.00	0.00	-248.34	24.59	250.05	-15.83
216	219	0.003000	0.023000	0.04900	500.00	500.00	500.00	0.00000	0.000	1	0.00	0.00	23.21	25.93	-23.17	-30.98
217	218	0.002000	0.014000	0.03000	500.00	500.00	500.00	0.00000	0.000	1	0.00	0.00	-110.79	10.64	111.02	-12.36
217	222	0.014000	0.105000	0.22100	500.00	500.00	500.00	0.00000	0.000	1	0.00	0.00	-131.38	13.46	133.66	-20.73
218	221	0.003000	0.026000	0.05500	500.00	500.00	500.00	0.00000	0.000	1	0.00	0.00	-44.51	2.34	44.56	-7.93
218	221	0.003000	0.026000	0.05500	500.00	500.00	500.00	0.00000	0.000	1	0.00	0.00	-44.51	2.34	44.56	-7.93
219	220	0.005000	0.040000	0.08300	500.00	500.00	500.00	0.00000	0.000	1	0.00	0.00	-78.91	-3.01	79.20	-3.70
219	220	0.005000	0.040000	0.08300	500.00	500.00	500.00	0.00000	0.000	1	0.00	0.00	-78.91	-3.01	79.20	-3.70
220	223	0.003000	0.022000	0.04600	500.00	500.00	500.00	0.00000	0.000	1	0.00	0.00	-143.20	-9.30	143.77	8.40
220	223	0.003000	0.022000	0.04600	500.00	500.00	500.00	0.00000	0.000	1	0.00	0.00	-143.20	-9.30	143.77	8.40
221	222	0.009000	0.068000	0.14200	500.00	500.00	500.00	0.00000	0.000	1	0.00	0.00	-164.07	22.62	166.34	-21.11
318	223	0.013000	0.104000	0.21800	500.00	500.00	500.00	0.00000	0.000	1	0.00	0.00	-28.75	-8.02	28.85	-15.22
301	302	0.003000	0.014000	0.46100	175.00	175.00	175.00	0.00000	0.000	1	0.00	0.00	9.77	-32.52	-9.76	-16.09
301	303	0.055000	0.211000	0.05700	175.00	175.00	175.00	0.00000	0.000	1	0.00	0.00	-42.11	38.92	43.95	-37.53
301	305	0.022000	0.085000	0.02300	175.00	175.00	175.00	0.00000	0.000	1	0.00	0.00	28.27	29.61	-27.91	-30.55
302	304	0.033000	0.127000	0.03400	175.00	175.00	175.00	0.00000	0.000	1	0.00	0.00	11.29	38.32	-10.75	-39.64
302	306	0.050000	0.192000	0.05200	175.00	175.00	175.00	0.00000	0.000	1	0.00	0.00	27.46	15.74	-26.94	-18.99
303	309	0.031000	0.119000	0.03200	175.00	175.00	175.00	0.00000	0.000	1	0.00	0.00	28.61	-6.55	-28.33	4.62
303	324	0.002000	0.084000	0.00000	400.00	400.00	400.00	1.01500	0.000	1	0.00	0.00	-252.54	7.11	253.94	51.69
304	309	0.027000	0.104000	0.02800	175.00	175.00	175.00	0.00000	0.000	1	0.00	0.00	-63.23	24.66	64.56	-22.18
305	310	0.023000	0.088000	0.02400	175.00	175.00	175.00	0.00000	0.000	1	0.00	0.00	-43.07	16.57	43.58	-17.01
306	310	0.014000	0.061000	2.45900	175.00	175.00	175.00	0.00000	0.000	1	0.00	0.00	-109.03	-105.10	110.79	-126.05
307	308	0.016000	0.061000	0.01700	175.00	175.00	175.00	0.00000	0.000	1	0.00	0.00	-14.99	13.00	15.07	-14.10
308	309	0.043000	0.165000	0.04500	175.00	175.00	175.00	0.00000	0.000	1	0.00	0.00	-102.04	0.49	107.52	16.58
308	310	0.043000	0.165000	0.04500	175.00	175.00	175.00	0.00000	0.000	1	0.00	0.00	-84.01	-21.31	87.92	32.27
309	311	0.002000	0.084000	0.00000	400.00	400.00	400.00	1.03000	0.000	1	0.00	0.00	-140.66	-17.94	141.12	37.10
309	312	0.002000	0.084000	0.00000	400.00	400.00	400.00	1.03000	0.000	1	0.00	0.00	-178.07	-17.06	178.80	47.56
310	311	0.002000	0.084000	0.00000	400.00	400.00	400.00	1.01500	0.000	1	0.00	0.00	-199.24	34.01	200.10	2.03
310	312	0.002000	0.084000	0.00000	400.00	400.00	400.00	1.01500	0.000	1	0.00	0.00	-238.03	36.83	239.24	14.35
311	313	0.006000	0.048000	0.10000	500.00	500.00	500.00	0.00000	0.000	1	0.00	0.00	-202.00	-42.66	204.71	54.70
311	314	0.005000	0.042000	0.08800	500.00	500.00	500.00	0.00000	0.000	1	0.00	0.00	-139.22	3.52	140.26	-3.03
312	313	0.006000	0.048000	0.10000	500.00	500.00	500.00	0.00000	0.000	1	0.00	0.00	-134.44	-47.11	135.70	47.49
312	323	0.012000	0.097000	0.20300	500.00	500.00	500.00	0.00000	0.000	1	0.00	0.00	-283.61	-14.80	293.85	76.82
313	323	0.011000	0.087000	0.18200	500.00	500.00	500.00	0.00000	0.000	1	0.00	0.00	-250.42	-6.19	257.28	41.34
314	316	0.005000	0.059000	0.08200	500.00	500.00	500.00	0.00000	0.000	1	0.00	0.00	-334.25	-35.96	340.22	98.19
315	316	0.002000	0.017000	0.03600	500.00	500.00	500.00	0.00000	0.000	1	0.00	0.00	31.78	8.47	-31.76	-12.11
315	321	0.006000	0.049000	0.10300	500.00	500.00	500.00	0.00000	0.000	1	0.00	0.00	-208.79	-10.63	211.25	19.60
315	321	0.006000	0.049000	0.10300	500.00	500.00	500.00	0.00000	0.000	1	0.00	0.00	-208.79	-10.63	211.25	19.60
315	324	0.007000	0.052000	0.10900	500.00	500.00	500.00	0.00000	0.000	1	0.00	0.00	258.80	76.79	-253.94	-51.69
316	317	0.003000	0.026000	0.05500	500.00	500.00	500.00	0.00000	0.000	1	0.00	0.00	-285.49	-14.67	287.81	28.85
316	319	0.003000	0.023000	0.04900	500.00	500.00	500.00	0.00000	0.000	1	0.00	0.00	32.03	-11.41	-32.00	6.46
317	318	0.002000	0.014000	0.03000	500.00	500.00	500.00	0.00000	0.000	1	0.00	0.00	-149.37	-37.15	149.80	36.90
317	322	0.014000	0.105000	0.22100	500.00	500.00	500.00	0.00000	0.000	1	0.00	0.00	-138.44	8.30	140.96	-13.56
318	321	0.003000	0.026000	0.05500	500.00	500.00	500.00	0.00000	0.000	1	0.00	0.00	-49.53	2.98	49.59	-8.46
318	321	0.003000	0.026000	0.05500	500.00	500.00	500.00	0.00000	0.000	1	0.00	0.00	-49.53	2.98	49.59	-8.46
319	320	0.005000	0.040000	0.08300	500.00	500.00	500.00	0.00000	0.000	1	0.00	0.00	-74.50	-21.73	74.78	15.05
319	320	0.005000	0.040000	0.08300	500.00	500.00	500.00	0.00000	0.000	1	0.00	0.00	-74.50	-21.73	74.78	15.05
320	323	0.003000	0.022000	0.04600	500.00	500.00	500.00	0.00000	0.000	1	0.00	0.00	-138.78	-28.05	139.33	27.08
320	323	0.003000	0.022000	0.04600	500.00	500.00	500.00	0.00000	0.000	1	0.00	0.00	-138.78	-28.05	139.33	27.08
321	322	0.009000	0.068000	0.14200	500.00	500.00	500.00	0.00000	0.000	1	0.00	0.00	-166.69	23.26	169.04	-21.18
323	325	0.000000	0.009000	0.00000	722.00	722.00	722.00	0.00000	0.000	1	0.00	0.00	-119.78	10.51	119.78	-9.33
];

%% bus names
mpc.bus_name = {
'ABEL';
'ADAMS';
'ADLER';
'AGRICOLA';
'AIKEN';
'ALBER';
'ALDER';
'ALGER';
'ALI';
'ALLEN';
'ANNA';
'ARCHER';
'ARNE';
'ARNOLD';
'ARTHUR';
'ASSER';
'ASTON';
'ASTOR';
'ATTAR';
'ATTILA';
'ATTLEE';
'AUBREY';
'AUSTEN';
'AVERY';
'BACH';
'BACON';
'BAFFIN';
'BAILEY';
'BAIN';
'BAJER';
'BAKER';
'BALCH';
'BALZAC';
'BANKS';
'BARDEEN';
'BARKLA';
'BARLOW';
'BARRY';
'BARTON';
'BASOV';
'BATES';
'BAYLE';
'BEDE';
'BEETHOVEN';
'BEHRING';
'BELL';
'BLOCH';
'BORDET';
'CABELL';
'CABOT';
'CAESAR';
'CAINE';
'CALVIN';
'CAMUS';
'CAREW';
'CARREL';
'CARTER';
'CARUSO';
'CARY';
'CAXTON';
'CECIL';
'CHAIN';
'CHASE';
'CHIFA';
'CHUHSI';
'CLARK';
'CLAY';
'CLIVE';
'COBB';
'COLE';
'COMTE';
'CURIE';
'CURTISS';
};

%% Generator Unit Types
mpc.gentype = {
'UN';
'UN';
'UN';
'UN';
'UN';
'UN';
'UN';
'UN';
'UN';
'UN';
'UN';
'UN';
'UN';
'UN';
'UN';
'UN';
'UN';
'UN';
'UN';
'UN';
'UN';
'UN';
'UN';
'UN';
'UN';
'UN';
'UN';
'UN';
'UN';
'UN';
'UN';
'UN';
'UN';
'UN';
'UN';
'UN';
'UN';
'UN';
'UN';
'UN';
'UN';
'UN';
'UN';
'UN';
'UN';
'UN';
'UN';
'UN';
'UN';
'UN';
'UN';
'UN';
'UN';
'UN';
'UN';
'UN';
'UN';
'UN';
'UN';
'UN';
'UN';
'UN';
'UN';
'UN';
'UN';
'UN';
'UN';
'UN';
'UN';
'UN';
'UN';
'UN';
'UN';
'UN';
'UN';
'UN';
'UN';
'UN';
'UN';
'UN';
'UN';
'UN';
'UN';
'UN';
'UN';
'UN';
'UN';
'UN';
'UN';
'UN';
'UN';
'UN';
'UN';
'UN';
'UN';
'UN';
'UN';
'UN';
'UN';
'UN';
'UN';
'UN';
'UN';
'UN';
'UN';
'UN';
'UN';
'UN';
'UN';
'UN';
'UN';
'UN';
'UN';
'UN';
'UN';
'UN';
'UN';
'UN';
'UN';
'UN';
'UN';
'UN';
'UN';
'UN';
'UN';
'UN';
'UN';
'UN';
'UN';
'UN';
'UN';
'UN';
'UN';
'UN';
'UN';
'UN';
'UN';
'UN';
'UN';
'UN';
'UN';
'UN';
'UN';
'UN';
'UN';
'UN';
'UN';
'UN';
'UN';
'UN';
'UN';
'UN';
'UN';
'UN';
'UN';
'UN';
'UN';
'UN';
'UN';
'UN';
};

%% Generator Fuel Types
mpc.genfuel = {
'unknown';
'unknown';
'unknown';
'unknown';
'unknown';
'unknown';
'unknown';
'unknown';
'unknown';
'unknown';
'unknown';
'unknown';
'unknown';
'unknown';
'unknown';
'unknown';
'unknown';
'unknown';
'unknown';
'unknown';
'unknown';
'unknown';
'unknown';
'unknown';
'unknown';
'unknown';
'unknown';
'unknown';
'unknown';
'unknown';
'unknown';
'unknown';
'unknown';
'unknown';
'unknown';
'unknown';
'unknown';
'unknown';
'unknown';
'unknown';
'unknown';
'unknown';
'unknown';
'unknown';
'unknown';
'unknown';
'unknown';
'unknown';
'unknown';
'unknown';
'unknown';
'unknown';
'unknown';
'unknown';
'unknown';
'unknown';
'unknown';
'unknown';
'unknown';
'unknown';
'unknown';
'unknown';
'unknown';
'unknown';
'unknown';
'unknown';
'unknown';
'unknown';
'unknown';
'unknown';
'unknown';
'unknown';
'unknown';
'unknown';
'unknown';
'unknown';
'unknown';
'unknown';
'unknown';
'unknown';
'unknown';
'unknown';
'unknown';
'unknown';
'unknown';
'unknown';
'unknown';
'unknown';
'unknown';
'unknown';
'unknown';
'unknown';
'unknown';
'unknown';
'unknown';
'unknown';
'unknown';
'unknown';
'unknown';
'unknown';
'unknown';
'unknown';
'unknown';
'unknown';
'unknown';
'unknown';
'unknown';
'unknown';
'unknown';
'unknown';
'unknown';
'unknown';
'unknown';
'unknown';
'unknown';
'unknown';
'unknown';
'unknown';
'unknown';
'unknown';
'unknown';
'unknown';
'unknown';
'unknown';
'unknown';
'unknown';
'unknown';
'unknown';
'unknown';
'unknown';
'unknown';
'unknown';
'unknown';
'unknown';
'unknown';
'unknown';
'unknown';
'unknown';
'unknown';
'unknown';
'unknown';
'unknown';
'unknown';
'unknown';
'unknown';
'unknown';
'unknown';
'unknown';
'unknown';
'unknown';
'unknown';
'unknown';
'unknown';
'unknown';
'unknown';
'unknown';
'unknown';
'unknown';
'unknown';
'unknown';
};
